97

C  -2.14961700 -1.77703200 -1.22473900
Ni 0.28742500 -0.37159500 -0.76876300
O    -2.19030300 -2.90546000 -0.73641200
C    1.22838000 0.61157200 0.54171900
N    2.39069700 0.20948100 1.12724100
N    0.90710600 1.80755200 1.10953600
C    2.84545800 1.09452800 2.21755500
C    1.93137800 2.31638700 2.04390900
H    3.90735800 1.33649200 2.10943500
H    2.70708900 0.60340400 3.18993100
H    2.45684600 3.17301200 1.60058100
H    1.47648400 2.64823400 2.98251600
C    -0.21015900 2.62890700 0.74341000
C    -1.36387000 2.60730300 1.55874700
C    -0.11508700 3.48099900 -0.37979100
C    -2.43448900 3.44088900 1.21189700
C    -1.21747000 4.28840200 -0.68871600
C    -2.36731700 4.27177200 0.09638900
H    -3.33329200 3.43712300 1.82269600
H    -1.16961500 4.94680300 -1.55197800
H    -3.20898400 4.91098000 -0.15781000
C    3.02317100 -1.05958400 0.90165600
C    4.13272700 -1.12029500 0.03023200
C    2.55460900 -2.20446800 1.58542900
C    4.74563000 -2.36292500 -0.17300900
C    3.19990100 -3.42352900 1.34282400
C    4.28120100 -3.50753600 0.46953000
H    5.59808500 -2.43461400 -0.84323400
H    2.85364100 -4.31935600 1.85081700
H    4.76743500 -4.46419700 0.29661200
C    4.68316700 0.11630300 -0.67411000
C    6.10440600 0.45430800 -0.17937100
C    4.65582900 -0.02605600 -2.20763700
H    4.03240000 0.95897300 -0.42081000
H    6.13161300 0.59209400 0.90803200
H    6.81323900 -0.34464500 -0.42739800
H    6.46570000 1.37712700 -0.64909800
H    3.64069300 -0.22459600 -2.56472700
H    5.01338300 0.89720600 -2.67998200
H    5.30309500 -0.84284200 -2.54934000
C    1.41850400 -2.14819200 2.60417200
C    0.25938000 -3.10344000 2.26322400
C    1.95258600 -2.42312400 4.02610400
H    1.00583900 -1.13506900 2.59456800
H    -0.19536500 -2.85777800 1.29931800
H    0.58913700 -4.14847900 2.22931100
H    -0.52121000 -3.03104400 3.03034800
H    2.75866300 -1.73071200 4.29679600
H    1.14887200 -2.31721600 4.76466100
H    2.35094000 -3.44105100 4.11140700
C    1.14193500 3.56618200 -1.24036400
C    0.87120800 3.14743800 -2.69792800
C    1.76862300 4.97372200 -1.17444200
H    1.87365500 2.85902300 -0.83902500
H    0.49476000 2.12047000 -2.74491400
H    0.13734600 3.80677100 -3.17725600
H    1.79659700 3.19834900 -3.28435000
H    1.98871400 5.26828000 -0.14154300
H    2.70533100 5.00171600 -1.74392500
H    1.09992000 5.73203500 -1.59847900
C    -1.47570800 1.71027500 2.78826000
C    -1.67448100 2.53338500 4.07664800
C    -2.58941300 0.65811700 2.62625000
H    -0.53293600 1.16354100 2.88713400
H    -0.87064000 3.26604100 4.21572300
H    -2.62286400 3.08313900 4.06170400
H    -1.68914800 1.87363600 4.95231800
H    -2.41753400 0.03505900 1.74308100
H    -2.62394700 0.00196900 3.50426300
H    -3.57566000 1.12603700 2.52394000
C    -0.95229800 -1.37318900 -2.04942300
C    0.27103000 -2.08913800 -1.79271900
C    -1.06111400 -0.67511600 -3.29811300
C    1.31672200 -2.06417300 -2.75782400
H    0.27989300 -2.85814800 -1.02596200
C    -0.02903000 -0.67512500 -4.21494200
H    -1.99386500 -0.18797000 -3.56170000
C    1.17624200 -1.36663400 -3.94189700
H    -0.15295700 -0.15879600 -5.16339400
N    -3.20370200 -0.87359700 -1.06335500
C    -3.06977900 0.55764300 -1.35164800
H    -2.01663800 0.83850800 -1.32431100
H    -3.48557100 0.84183700 -2.32693600
H    -3.59338400 1.12443400 -0.57790900
C    -4.47169000 -1.29774300 -0.55304700
C    -5.63588300 -0.71649900 -1.08257100
C    -4.59896100 -2.24016600 0.48154600
C    -6.89459500 -1.06778400 -0.59558900
H    -5.56198300 0.00511400 -1.88964800
C    -5.86355300 -2.58893500 0.95561900
H    -3.71372800 -2.70102400 0.89334300
C    -7.01769700 -2.00919000 0.42625200
H    -7.77978900 -0.60634500 -1.02597000
H    -5.94116800 -3.32067400 1.75586700
H    -7.99778600 -2.28665100 0.80459700
H    2.22120800 -2.63348900 -2.56019200
H    1.97669700 -1.36796100 -4.67736800